


 48 51  0  0  0  0  0  0  0  0999 V2000
   15.2902  -15.0370   20.8095 C   0  0  0  0  0  0  0  0  0  0  0  0
   16.2072  -13.8973   21.2632 C   0  0  0  0  0  0  0  0  0  0  0  0
   15.8385  -13.3118   22.2778 O   0  0  0  0  0  0  0  0  0  0  0  0
   17.3154  -13.4954   20.4677 N   0  0  0  0  0  0  0  0  0  0  0  0
   17.4298  -14.1405   19.0527 C   0  0  0  0  0  0  0  0  0  0  0  0
   18.9155  -14.5058   18.9141 C   0  0  0  0  0  0  0  0  0  0  0  0
   19.9125  -13.2656   19.2916 C   0  0  0  0  0  0  0  0  0  0  0  0
   19.6371  -12.6321   20.7442 C   0  0  0  0  0  0  0  0  0  0  0  0
   18.1806  -12.2928   20.9225 C   0  0  0  0  0  0  0  0  0  0  0  0
   17.0799  -13.3469   18.0075 C   0  0  0  0  0  0  0  0  0  0  0  0
   15.8149  -13.7982   17.1891 C   0  0  0  0  0  0  0  0  0  0  0  0
   14.4165  -12.0061   17.7187 O   0  0  0  0  0  0  0  0  0  0  0  0
   15.0464  -12.5692   16.8699 C   0  0  0  0  0  0  0  0  0  0  0  0
   14.4479  -13.1274   14.1979 S   0  0  0  0  0  0  0  0  0  0  0  0
   15.6065  -12.3468   13.1781 C   0  0  0  0  0  0  0  0  0  0  0  0
   14.9847  -12.0317   15.4533 C   0  0  0  0  0  0  0  0  0  0  0  0
   16.2502  -11.3236   13.8447 C   0  0  0  0  0  0  0  0  0  0  0  0
   15.8877  -11.0918   15.1276 N   0  0  0  0  0  0  0  0  0  0  0  0
   15.0271  -15.8442   22.0406 N   0  0  0  0  0  0  0  0  0  0  0  0
   15.1961  -15.2663   22.8639 H   0  0  0  0  0  0  0  0  0  0  0  0
   16.1737  -17.3655   22.0950 S   0  0  0  0  0  0  0  0  0  0  0  0
   16.5051  -17.7385   20.7081 O   0  0  0  0  0  0  0  0  0  0  0  0
   15.1764  -18.0816   22.9104 O   0  0  0  0  0  0  0  0  0  0  0  0
   17.9071  -16.8256   22.5834 C   0  0  0  0  0  0  0  0  0  0  0  0
   18.8409  -16.6808   21.5288 C   0  0  0  0  0  0  0  0  0  0  0  0
   20.1107  -16.2677   21.8421 C   0  0  0  0  0  0  0  0  0  0  0  0
   20.4481  -15.9881   23.1734 C   0  0  0  0  0  0  0  0  0  0  0  0
   19.5319  -16.0912   24.2147 C   0  0  0  0  0  0  0  0  0  0  0  0
   19.8116  -15.7212   25.5021 C   0  0  0  0  0  0  0  0  0  0  0  0
   18.8451  -15.8034   26.4820 C   0  0  0  0  0  0  0  0  0  0  0  0
   17.5728  -16.3164   26.1582 C   0  0  0  0  0  0  0  0  0  0  0  0
   17.2378  -16.6652   24.8736 C   0  0  0  0  0  0  0  0  0  0  0  0
   18.1911  -16.5405   23.8990 C   0  0  0  0  0  0  0  0  0  0  0  0
   21.0256  -15.1072   25.8119 N   0  0  0  0  0  0  0  0  0  0  0  0
   22.1320  -15.7755   26.5380 C   0  0  0  0  0  0  0  0  0  0  0  0
   21.1166  -13.5406   26.1579 C   0  0  0  0  0  0  0  0  0  0  0  0
   13.9769  -14.5139   20.2455 C   0  0  0  0  0  0  0  0  0  0  0  0
   12.7899  -14.7590   21.1789 C   0  0  0  0  0  0  0  0  0  0  0  0
   12.4003  -13.4534   21.8566 C   0  0  0  0  0  0  0  0  0  0  0  0
   12.5047  -12.4211   20.8476 N   0  0  0  0  0  0  0  0  0  0  0  0
   13.0591  -11.2250   20.9362 C   0  0  0  0  0  0  0  0  0  0  0  0
   13.7257  -10.8890   22.0419 N   0  0  0  0  0  0  0  0  0  0  0  0
   12.9975  -10.4289   19.8771 N   0  0  0  0  0  0  0  0  0  0  0  0
   13.7496  -11.5057   22.8089 H   0  0  0  0  0  0  0  0  0  0  0  0
   14.1938  -10.0243   22.0908 H   0  0  0  0  0  0  0  0  0  0  0  0
   12.4958  -10.7105   19.0782 H   0  0  0  0  0  0  0  0  0  0  0  0
   13.4535   -9.5565   19.8899 H   0  0  0  0  0  0  0  0  0  0  0  0
   13.4191   -9.9123   20.6013 H   0  0  0  0  0  0  0  0  0  0  0  0
 24 25  2  0  0  0
 24 33  1  0  0  0
 24 21  1  0  0  0
 25 26  1  0  0  0
 26 27  2  0  0  0
 27 28  1  0  0  0
 28 29  2  0  0  0
 28 33  1  0  0  0
 29 30  1  0  0  0
 29 34  1  0  0  0
 30 31  2  0  0  0
 31 32  1  0  0  0
 32 33  2  0  0  0
 34 35  1  0  0  0
 34 36  1  0  0  0
 21 22  2  0  0  0
 21 23  2  0  0  0
 21 19  1  0  0  0
 19  1  1  0  0  0
  1 37  1  0  0  0
  1  2  1  0  0  0
  2  3  2  0  0  0
  2  4  1  0  0  0
 37 38  1  0  0  0
 38 39  1  0  0  0
 39 40  1  0  0  0
 40 41  2  0  0  0
 41 42  1  0  0  0
 41 43  1  0  0  0
  4  5  1  0  0  0
  4  9  1  0  0  0
  5  6  1  0  0  0
  5 10  1  0  0  0
  6  7  1  0  0  0
  7  8  1  0  0  0
  8  9  1  0  0  0
 10 11  1  0  0  0
 11 13  1  0  0  0
 14 15  1  0  0  0
 14 16  1  0  0  0
 12 13  2  0  0  0
 15 17  2  0  0  0
 16 13  1  0  0  0
 16 18  2  0  0  0
 17 18  1  0  0  0
 19 20  1  0  0  0
 42 44  1  0  0  0
 42 45  1  0  0  0
 43 46  1  0  0  0
 43 47  1  0  0  0
 43 48  1  0  0  0
M  CHG 1  43   1
M  END
> <minimizedAffinity>
-9.01899

$$$$



 48 51  0  0  0  0  0  0  0  0999 V2000
   15.4837  -15.1088   20.7386 C   0  0  0  0  0  0  0  0  0  0  0  0
   16.3354  -13.9235   21.2028 C   0  0  0  0  0  0  0  0  0  0  0  0
   15.9188  -13.3510   22.2063 O   0  0  0  0  0  0  0  0  0  0  0  0
   17.4385  -13.4728   20.4265 N   0  0  0  0  0  0  0  0  0  0  0  0
   17.6119  -14.1193   19.0182 C   0  0  0  0  0  0  0  0  0  0  0  0
   19.1160  -14.4130   18.9111 C   0  0  0  0  0  0  0  0  0  0  0  0
   20.0442  -13.1239   19.3000 C   0  0  0  0  0  0  0  0  0  0  0  0
   19.7098  -12.4965   20.7427 C   0  0  0  0  0  0  0  0  0  0  0  0
   18.2353  -12.2272   20.8904 C   0  0  0  0  0  0  0  0  0  0  0  0
   17.2449  -13.3494   17.9613 C   0  0  0  0  0  0  0  0  0  0  0  0
   16.0058  -13.8542   17.1346 C   0  0  0  0  0  0  0  0  0  0  0  0
   14.6121  -11.9858   17.0150 O   0  0  0  0  0  0  0  0  0  0  0  0
   15.4251  -12.6671   16.4589 C   0  0  0  0  0  0  0  0  0  0  0  0
   14.4852  -11.9851   13.9172 S   0  0  0  0  0  0  0  0  0  0  0  0
   15.4469  -12.7814   12.7202 C   0  0  0  0  0  0  0  0  0  0  0  0
   15.7945  -12.3229   15.0291 C   0  0  0  0  0  0  0  0  0  0  0  0
   16.6606  -13.1836   13.2405 C   0  0  0  0  0  0  0  0  0  0  0  0
   16.9054  -12.8990   14.5404 N   0  0  0  0  0  0  0  0  0  0  0  0
   15.1787  -15.8844   21.9803 N   0  0  0  0  0  0  0  0  0  0  0  0
   15.1592  -15.2484   22.7776 H   0  0  0  0  0  0  0  0  0  0  0  0
   16.5080  -17.2183   22.2736 S   0  0  0  0  0  0  0  0  0  0  0  0
   17.6884  -16.8744   21.4606 O   0  0  0  0  0  0  0  0  0  0  0  0
   15.5381  -18.2609   21.8935 O   0  0  0  0  0  0  0  0  0  0  0  0
   17.3197  -16.9360   23.9458 C   0  0  0  0  0  0  0  0  0  0  0  0
   16.8227  -17.7075   25.0241 C   0  0  0  0  0  0  0  0  0  0  0  0
   17.4033  -17.5458   26.2561 C   0  0  0  0  0  0  0  0  0  0  0  0
   18.4671  -16.6476   26.4168 C   0  0  0  0  0  0  0  0  0  0  0  0
   18.9893  -15.9098   25.3598 C   0  0  0  0  0  0  0  0  0  0  0  0
   20.0936  -15.1097   25.4741 C   0  0  0  0  0  0  0  0  0  0  0  0
   20.5914  -14.4391   24.3770 C   0  0  0  0  0  0  0  0  0  0  0  0
   19.9260  -14.5470   23.1390 C   0  0  0  0  0  0  0  0  0  0  0  0
   18.8373  -15.3659   22.9708 C   0  0  0  0  0  0  0  0  0  0  0  0
   18.3754  -16.0607   24.0562 C   0  0  0  0  0  0  0  0  0  0  0  0
   20.8262  -15.0835   26.6613 N   0  0  0  0  0  0  0  0  0  0  0  0
   21.0878  -13.8545   27.4481 C   0  0  0  0  0  0  0  0  0  0  0  0
   22.0677  -16.0729   26.9105 C   0  0  0  0  0  0  0  0  0  0  0  0
   14.1875  -14.6506   20.0855 C   0  0  0  0  0  0  0  0  0  0  0  0
   12.9551  -14.9388   20.9447 C   0  0  0  0  0  0  0  0  0  0  0  0
   12.4685  -13.6457   21.5826 C   0  0  0  0  0  0  0  0  0  0  0  0
   12.5059  -12.6377   20.5447 N   0  0  0  0  0  0  0  0  0  0  0  0
   13.1149  -11.4651   20.5462 C   0  0  0  0  0  0  0  0  0  0  0  0
   13.9095  -11.1376   21.5667 N   0  0  0  0  0  0  0  0  0  0  0  0
   12.9725  -10.6868   19.4817 N   0  0  0  0  0  0  0  0  0  0  0  0
   13.9903  -11.7405   22.3408 H   0  0  0  0  0  0  0  0  0  0  0  0
   14.4149  -10.2930   21.5456 H   0  0  0  0  0  0  0  0  0  0  0  0
   12.3769  -10.9613   18.7474 H   0  0  0  0  0  0  0  0  0  0  0  0
   13.4624   -9.8347   19.4258 H   0  0  0  0  0  0  0  0  0  0  0  0
   13.4901  -10.1754   20.1449 H   0  0  0  0  0  0  0  0  0  0  0  0
 24 25  2  0  0  0
 24 33  1  0  0  0
 24 21  1  0  0  0
 25 26  1  0  0  0
 26 27  2  0  0  0
 27 28  1  0  0  0
 28 29  2  0  0  0
 28 33  1  0  0  0
 29 30  1  0  0  0
 29 34  1  0  0  0
 30 31  2  0  0  0
 31 32  1  0  0  0
 32 33  2  0  0  0
 34 35  1  0  0  0
 34 36  1  0  0  0
 21 22  2  0  0  0
 21 23  2  0  0  0
 21 19  1  0  0  0
 19  1  1  0  0  0
  1 37  1  0  0  0
  1  2  1  0  0  0
  2  3  2  0  0  0
  2  4  1  0  0  0
 37 38  1  0  0  0
 38 39  1  0  0  0
 39 40  1  0  0  0
 40 41  2  0  0  0
 41 42  1  0  0  0
 41 43  1  0  0  0
  4  5  1  0  0  0
  4  9  1  0  0  0
  5  6  1  0  0  0
  5 10  1  0  0  0
  6  7  1  0  0  0
  7  8  1  0  0  0
  8  9  1  0  0  0
 10 11  1  0  0  0
 11 13  1  0  0  0
 14 15  1  0  0  0
 14 16  1  0  0  0
 12 13  2  0  0  0
 15 17  2  0  0  0
 16 13  1  0  0  0
 16 18  2  0  0  0
 17 18  1  0  0  0
 19 20  1  0  0  0
 42 44  1  0  0  0
 42 45  1  0  0  0
 43 46  1  0  0  0
 43 47  1  0  0  0
 43 48  1  0  0  0
M  CHG 1  43   1
M  END
> <minimizedAffinity>
-8.10443

$$$$



 48 51  0  0  0  0  0  0  0  0999 V2000
   14.3770  -14.1804   20.9574 C   0  0  0  0  0  0  0  0  0  0  0  0
   14.6026  -15.6224   21.4216 C   0  0  0  0  0  0  0  0  0  0  0  0
   13.5816  -16.2291   21.7341 O   0  0  0  0  0  0  0  0  0  0  0  0
   15.9187  -16.1342   21.5903 N   0  0  0  0  0  0  0  0  0  0  0  0
   17.0881  -15.1110   21.4595 C   0  0  0  0  0  0  0  0  0  0  0  0
   18.1397  -15.8342   20.6045 C   0  0  0  0  0  0  0  0  0  0  0  0
   18.4745  -17.3399   21.1484 C   0  0  0  0  0  0  0  0  0  0  0  0
   17.1740  -18.2705   21.3206 C   0  0  0  0  0  0  0  0  0  0  0  0
   16.1102  -17.5748   22.1285 C   0  0  0  0  0  0  0  0  0  0  0  0
   17.6699  -14.7213   22.6232 C   0  0  0  0  0  0  0  0  0  0  0  0
   19.0081  -13.9059   22.4886 C   0  0  0  0  0  0  0  0  0  0  0  0
   20.8500  -15.2946   22.8446 O   0  0  0  0  0  0  0  0  0  0  0  0
   20.0168  -14.5889   23.3366 C   0  0  0  0  0  0  0  0  0  0  0  0
   21.2177  -13.4852   25.6057 S   0  0  0  0  0  0  0  0  0  0  0  0
   21.1928  -14.6468   26.8871 C   0  0  0  0  0  0  0  0  0  0  0  0
   19.9808  -14.4648   24.8475 C   0  0  0  0  0  0  0  0  0  0  0  0
   20.2455  -15.6242   26.6574 C   0  0  0  0  0  0  0  0  0  0  0  0
   19.5099  -15.5244   25.5261 N   0  0  0  0  0  0  0  0  0  0  0  0
   13.7898  -14.2955   19.5868 N   0  0  0  0  0  0  0  0  0  0  0  0
   13.8034  -15.2732   19.2964 H   0  0  0  0  0  0  0  0  0  0  0  0
   14.7949  -13.2572   18.3442 S   0  0  0  0  0  0  0  0  0  0  0  0
   16.2220  -13.3851   18.6900 O   0  0  0  0  0  0  0  0  0  0  0  0
   13.9820  -12.0752   18.6822 O   0  0  0  0  0  0  0  0  0  0  0  0
   14.8974  -14.1706   16.7041 C   0  0  0  0  0  0  0  0  0  0  0  0
   14.8242  -15.5833   16.7656 C   0  0  0  0  0  0  0  0  0  0  0  0
   14.8739  -16.2850   15.5882 C   0  0  0  0  0  0  0  0  0  0  0  0
   14.9793  -15.6015   14.3692 C   0  0  0  0  0  0  0  0  0  0  0  0
   15.0160  -14.2134   14.2907 C   0  0  0  0  0  0  0  0  0  0  0  0
   15.0112  -13.5265   13.1071 C   0  0  0  0  0  0  0  0  0  0  0  0
   15.0013  -12.1478   13.0955 C   0  0  0  0  0  0  0  0  0  0  0  0
   15.0421  -11.4448   14.3166 C   0  0  0  0  0  0  0  0  0  0  0  0
   15.0115  -12.0923   15.5266 C   0  0  0  0  0  0  0  0  0  0  0  0
   14.9788  -13.4609   15.5283 C   0  0  0  0  0  0  0  0  0  0  0  0
   14.8561  -14.2053   11.8980 N   0  0  0  0  0  0  0  0  0  0  0  0
   15.9032  -14.2862   10.8516 C   0  0  0  0  0  0  0  0  0  0  0  0
   13.4369  -14.2831   11.1482 C   0  0  0  0  0  0  0  0  0  0  0  0
   13.4122  -13.4380   21.8710 C   0  0  0  0  0  0  0  0  0  0  0  0
   13.7933  -11.9699   22.0702 C   0  0  0  0  0  0  0  0  0  0  0  0
   12.5297  -11.1303   22.1892 C   0  0  0  0  0  0  0  0  0  0  0  0
   12.7951  -10.1322   23.2031 N   0  0  0  0  0  0  0  0  0  0  0  0
   12.0809   -9.8208   24.2703 C   0  0  0  0  0  0  0  0  0  0  0  0
   11.0088  -10.5517   24.5807 N   0  0  0  0  0  0  0  0  0  0  0  0
   12.5117   -8.8323   25.0425 N   0  0  0  0  0  0  0  0  0  0  0  0
   10.7183  -11.2780   23.9829 H   0  0  0  0  0  0  0  0  0  0  0  0
   10.5082  -10.3647   25.4075 H   0  0  0  0  0  0  0  0  0  0  0  0
   13.3070   -8.3142   24.7811 H   0  0  0  0  0  0  0  0  0  0  0  0
   12.0361   -8.6166   25.8771 H   0  0  0  0  0  0  0  0  0  0  0  0
   11.6433   -9.1226   25.4043 H   0  0  0  0  0  0  0  0  0  0  0  0
 24 25  2  0  0  0
 24 33  1  0  0  0
 24 21  1  0  0  0
 25 26  1  0  0  0
 26 27  2  0  0  0
 27 28  1  0  0  0
 28 29  2  0  0  0
 28 33  1  0  0  0
 29 30  1  0  0  0
 29 34  1  0  0  0
 30 31  2  0  0  0
 31 32  1  0  0  0
 32 33  2  0  0  0
 34 35  1  0  0  0
 34 36  1  0  0  0
 21 22  2  0  0  0
 21 23  2  0  0  0
 21 19  1  0  0  0
 19  1  1  0  0  0
  1 37  1  0  0  0
  1  2  1  0  0  0
  2  3  2  0  0  0
  2  4  1  0  0  0
 37 38  1  0  0  0
 38 39  1  0  0  0
 39 40  1  0  0  0
 40 41  2  0  0  0
 41 42  1  0  0  0
 41 43  1  0  0  0
  4  5  1  0  0  0
  4  9  1  0  0  0
  5  6  1  0  0  0
  5 10  1  0  0  0
  6  7  1  0  0  0
  7  8  1  0  0  0
  8  9  1  0  0  0
 10 11  1  0  0  0
 11 13  1  0  0  0
 14 15  1  0  0  0
 14 16  1  0  0  0
 12 13  2  0  0  0
 15 17  2  0  0  0
 16 13  1  0  0  0
 16 18  2  0  0  0
 17 18  1  0  0  0
 19 20  1  0  0  0
 42 44  1  0  0  0
 42 45  1  0  0  0
 43 46  1  0  0  0
 43 47  1  0  0  0
 43 48  1  0  0  0
M  CHG 1  43   1
M  END
> <minimizedAffinity>
-7.95561

$$$$



 48 51  0  0  0  0  0  0  0  0999 V2000
   19.7821  -15.3071   23.5436 C   0  0  0  0  0  0  0  0  0  0  0  0
   20.4031  -14.4627   22.4269 C   0  0  0  0  0  0  0  0  0  0  0  0
   21.5597  -14.1052   22.6334 O   0  0  0  0  0  0  0  0  0  0  0  0
   19.6218  -14.0370   21.3174 N   0  0  0  0  0  0  0  0  0  0  0  0
   18.0893  -14.3140   21.3951 C   0  0  0  0  0  0  0  0  0  0  0  0
   17.7215  -14.8423   20.0002 C   0  0  0  0  0  0  0  0  0  0  0  0
   18.2852  -13.8940   18.7928 C   0  0  0  0  0  0  0  0  0  0  0  0
   19.8670  -13.6143   18.8734 C   0  0  0  0  0  0  0  0  0  0  0  0
   20.2641  -13.1252   20.2414 C   0  0  0  0  0  0  0  0  0  0  0  0
   17.3045  -13.2407   21.6722 C   0  0  0  0  0  0  0  0  0  0  0  0
   15.7730  -13.5369   21.8733 C   0  0  0  0  0  0  0  0  0  0  0  0
   15.5961  -11.6845   20.4642 O   0  0  0  0  0  0  0  0  0  0  0  0
   15.0297  -12.4456   21.1952 C   0  0  0  0  0  0  0  0  0  0  0  0
   12.8795  -10.6693   21.0212 S   0  0  0  0  0  0  0  0  0  0  0  0
   11.8941  -10.8254   22.4341 C   0  0  0  0  0  0  0  0  0  0  0  0
   13.5527  -12.2250   21.4583 C   0  0  0  0  0  0  0  0  0  0  0  0
   12.1220  -12.0281   23.0722 C   0  0  0  0  0  0  0  0  0  0  0  0
   13.0291  -12.8648   22.5173 N   0  0  0  0  0  0  0  0  0  0  0  0
   20.8281  -16.3133   23.9041 N   0  0  0  0  0  0  0  0  0  0  0  0
   21.6997  -16.0765   23.4302 H   0  0  0  0  0  0  0  0  0  0  0  0
   20.2799  -18.0601   23.3748 S   0  0  0  0  0  0  0  0  0  0  0  0
   20.6946  -19.0076   24.4250 O   0  0  0  0  0  0  0  0  0  0  0  0
   21.0025  -17.8953   22.1009 O   0  0  0  0  0  0  0  0  0  0  0  0
   18.4291  -18.2452   23.6490 C   0  0  0  0  0  0  0  0  0  0  0  0
   17.9518  -17.9366   24.9459 C   0  0  0  0  0  0  0  0  0  0  0  0
   16.6043  -18.0388   25.1800 C   0  0  0  0  0  0  0  0  0  0  0  0
   15.7409  -18.4251   24.1458 C   0  0  0  0  0  0  0  0  0  0  0  0
   16.1906  -18.6965   22.8580 C   0  0  0  0  0  0  0  0  0  0  0  0
   15.3533  -18.9707   21.8109 C   0  0  0  0  0  0  0  0  0  0  0  0
   15.8580  -19.1856   20.5460 C   0  0  0  0  0  0  0  0  0  0  0  0
   17.2530  -19.1659   20.3445 C   0  0  0  0  0  0  0  0  0  0  0  0
   18.1269  -18.8596   21.3578 C   0  0  0  0  0  0  0  0  0  0  0  0
   17.6137  -18.6063   22.6014 C   0  0  0  0  0  0  0  0  0  0  0  0
   13.9702  -18.8811   21.9713 N   0  0  0  0  0  0  0  0  0  0  0  0
   13.0818  -20.0491   22.1819 C   0  0  0  0  0  0  0  0  0  0  0  0
   13.1018  -17.7624   21.2118 C   0  0  0  0  0  0  0  0  0  0  0  0
   19.4359  -14.4639   24.7625 C   0  0  0  0  0  0  0  0  0  0  0  0
   20.6736  -13.9600   25.5072 C   0  0  0  0  0  0  0  0  0  0  0  0
   20.7187  -14.5836   26.8946 C   0  0  0  0  0  0  0  0  0  0  0  0
   21.9382  -15.3607   26.9549 N   0  0  0  0  0  0  0  0  0  0  0  0
   22.0860  -16.6722   27.0191 C   0  0  0  0  0  0  0  0  0  0  0  0
   21.0152  -17.4609   26.9140 N   0  0  0  0  0  0  0  0  0  0  0  0
   23.3172  -17.1577   27.1055 N   0  0  0  0  0  0  0  0  0  0  0  0
   20.1161  -17.0647   26.8520 H   0  0  0  0  0  0  0  0  0  0  0  0
   21.1241  -18.4393   26.8985 H   0  0  0  0  0  0  0  0  0  0  0  0
   24.0838  -16.5447   27.1820 H   0  0  0  0  0  0  0  0  0  0  0  0
   23.4646  -18.1310   27.0932 H   0  0  0  0  0  0  0  0  0  0  0  0
   22.7008  -17.9220   27.1767 H   0  0  0  0  0  0  0  0  0  0  0  0
 24 25  2  0  0  0
 24 33  1  0  0  0
 24 21  1  0  0  0
 25 26  1  0  0  0
 26 27  2  0  0  0
 27 28  1  0  0  0
 28 29  2  0  0  0
 28 33  1  0  0  0
 29 30  1  0  0  0
 29 34  1  0  0  0
 30 31  2  0  0  0
 31 32  1  0  0  0
 32 33  2  0  0  0
 34 35  1  0  0  0
 34 36  1  0  0  0
 21 22  2  0  0  0
 21 23  2  0  0  0
 21 19  1  0  0  0
 19  1  1  0  0  0
  1 37  1  0  0  0
  1  2  1  0  0  0
  2  3  2  0  0  0
  2  4  1  0  0  0
 37 38  1  0  0  0
 38 39  1  0  0  0
 39 40  1  0  0  0
 40 41  2  0  0  0
 41 42  1  0  0  0
 41 43  1  0  0  0
  4  5  1  0  0  0
  4  9  1  0  0  0
  5  6  1  0  0  0
  5 10  1  0  0  0
  6  7  1  0  0  0
  7  8  1  0  0  0
  8  9  1  0  0  0
 10 11  1  0  0  0
 11 13  1  0  0  0
 14 15  1  0  0  0
 14 16  1  0  0  0
 12 13  2  0  0  0
 15 17  2  0  0  0
 16 13  1  0  0  0
 16 18  2  0  0  0
 17 18  1  0  0  0
 19 20  1  0  0  0
 42 44  1  0  0  0
 42 45  1  0  0  0
 43 46  1  0  0  0
 43 47  1  0  0  0
 43 48  1  0  0  0
M  CHG 1  43   1
M  END
> <minimizedAffinity>
-7.94909

$$$$



 48 51  0  0  0  0  0  0  0  0999 V2000
   14.5070  -14.5109   20.6142 C   0  0  0  0  0  0  0  0  0  0  0  0
   13.9483  -15.8244   21.1695 C   0  0  0  0  0  0  0  0  0  0  0  0
   12.7320  -15.8364   21.3392 O   0  0  0  0  0  0  0  0  0  0  0  0
   14.8205  -16.8740   21.5693 N   0  0  0  0  0  0  0  0  0  0  0  0
   16.3451  -16.5473   21.5851 C   0  0  0  0  0  0  0  0  0  0  0  0
   17.0093  -17.7741   20.9419 C   0  0  0  0  0  0  0  0  0  0  0  0
   16.5047  -19.1857   21.5959 C   0  0  0  0  0  0  0  0  0  0  0  0
   14.9063  -19.3648   21.5960 C   0  0  0  0  0  0  0  0  0  0  0  0
   14.2240  -18.1617   22.1920 C   0  0  0  0  0  0  0  0  0  0  0  0
   16.8978  -16.3481   22.8096 C   0  0  0  0  0  0  0  0  0  0  0  0
   17.2520  -14.8599   23.1751 C   0  0  0  0  0  0  0  0  0  0  0  0
   19.5001  -15.3499   23.5673 O   0  0  0  0  0  0  0  0  0  0  0  0
   18.7098  -14.6954   22.9497 C   0  0  0  0  0  0  0  0  0  0  0  0
   18.0720  -12.5897   21.2269 S   0  0  0  0  0  0  0  0  0  0  0  0
   19.0698  -12.6831   19.8172 C   0  0  0  0  0  0  0  0  0  0  0  0
   19.2386  -13.6534   21.9833 C   0  0  0  0  0  0  0  0  0  0  0  0
   20.1913  -13.4540   20.0487 C   0  0  0  0  0  0  0  0  0  0  0  0
   20.3373  -13.9847   21.2847 N   0  0  0  0  0  0  0  0  0  0  0  0
   14.0875  -14.4802   19.1792 N   0  0  0  0  0  0  0  0  0  0  0  0
   13.1658  -14.9079   19.0892 H   0  0  0  0  0  0  0  0  0  0  0  0
   15.3330  -15.4402   18.1023 S   0  0  0  0  0  0  0  0  0  0  0  0
   14.9534  -16.8643   18.1232 O   0  0  0  0  0  0  0  0  0  0  0  0
   16.4417  -14.8853   18.8993 O   0  0  0  0  0  0  0  0  0  0  0  0
   14.9442  -15.1495   16.2860 C   0  0  0  0  0  0  0  0  0  0  0  0
   14.2827  -16.2023   15.6085 C   0  0  0  0  0  0  0  0  0  0  0  0
   13.9625  -16.0201   14.2873 C   0  0  0  0  0  0  0  0  0  0  0  0
   14.2776  -14.8122   13.6501 C   0  0  0  0  0  0  0  0  0  0  0  0
   14.8948  -13.7562   14.3121 C   0  0  0  0  0  0  0  0  0  0  0  0
   15.1138  -12.5335   13.7378 C   0  0  0  0  0  0  0  0  0  0  0  0
   15.6888  -11.5106   14.4617 C   0  0  0  0  0  0  0  0  0  0  0  0
   16.0938  -11.7459   15.7912 C   0  0  0  0  0  0  0  0  0  0  0  0
   15.8609  -12.9448   16.4179 C   0  0  0  0  0  0  0  0  0  0  0  0
   15.2513  -13.9412   15.7041 C   0  0  0  0  0  0  0  0  0  0  0  0
   14.6165  -12.2526   12.4648 N   0  0  0  0  0  0  0  0  0  0  0  0
   15.4680  -11.9531   11.2887 C   0  0  0  0  0  0  0  0  0  0  0  0
   13.2310  -11.4665   12.2529 C   0  0  0  0  0  0  0  0  0  0  0  0
   13.9378  -13.3025   21.3438 C   0  0  0  0  0  0  0  0  0  0  0  0
   13.0741  -12.4174   20.4432 C   0  0  0  0  0  0  0  0  0  0  0  0
   12.5712  -11.2222   21.2397 C   0  0  0  0  0  0  0  0  0  0  0  0
   11.6223  -11.7410   22.2016 N   0  0  0  0  0  0  0  0  0  0  0  0
   11.5072  -11.4639   23.4884 C   0  0  0  0  0  0  0  0  0  0  0  0
   12.2662  -10.5075   24.0260 N   0  0  0  0  0  0  0  0  0  0  0  0
   10.5734  -12.1006   24.1825 N   0  0  0  0  0  0  0  0  0  0  0  0
   12.9500  -10.0564   23.4799 H   0  0  0  0  0  0  0  0  0  0  0  0
   12.1426  -10.2528   24.9689 H   0  0  0  0  0  0  0  0  0  0  0  0
   10.0322  -12.8014   23.7521 H   0  0  0  0  0  0  0  0  0  0  0  0
   10.4215  -11.8725   25.1281 H   0  0  0  0  0  0  0  0  0  0  0  0
   11.0820  -11.5507   24.8213 H   0  0  0  0  0  0  0  0  0  0  0  0
 24 25  2  0  0  0
 24 33  1  0  0  0
 24 21  1  0  0  0
 25 26  1  0  0  0
 26 27  2  0  0  0
 27 28  1  0  0  0
 28 29  2  0  0  0
 28 33  1  0  0  0
 29 30  1  0  0  0
 29 34  1  0  0  0
 30 31  2  0  0  0
 31 32  1  0  0  0
 32 33  2  0  0  0
 34 35  1  0  0  0
 34 36  1  0  0  0
 21 22  2  0  0  0
 21 23  2  0  0  0
 21 19  1  0  0  0
 19  1  1  0  0  0
  1 37  1  0  0  0
  1  2  1  0  0  0
  2  3  2  0  0  0
  2  4  1  0  0  0
 37 38  1  0  0  0
 38 39  1  0  0  0
 39 40  1  0  0  0
 40 41  2  0  0  0
 41 42  1  0  0  0
 41 43  1  0  0  0
  4  5  1  0  0  0
  4  9  1  0  0  0
  5  6  1  0  0  0
  5 10  1  0  0  0
  6  7  1  0  0  0
  7  8  1  0  0  0
  8  9  1  0  0  0
 10 11  1  0  0  0
 11 13  1  0  0  0
 14 15  1  0  0  0
 14 16  1  0  0  0
 12 13  2  0  0  0
 15 17  2  0  0  0
 16 13  1  0  0  0
 16 18  2  0  0  0
 17 18  1  0  0  0
 19 20  1  0  0  0
 42 44  1  0  0  0
 42 45  1  0  0  0
 43 46  1  0  0  0
 43 47  1  0  0  0
 43 48  1  0  0  0
M  CHG 1  43   1
M  END
> <minimizedAffinity>
-7.54738

$$$$



 48 51  0  0  0  0  0  0  0  0999 V2000
   14.7490  -15.2031   20.1911 C   0  0  0  0  0  0  0  0  0  0  0  0
   14.6867  -16.5863   19.5364 C   0  0  0  0  0  0  0  0  0  0  0  0
   14.0580  -16.6299   18.4823 O   0  0  0  0  0  0  0  0  0  0  0  0
   15.2144  -17.7286   20.1991 N   0  0  0  0  0  0  0  0  0  0  0  0
   15.6793  -17.5277   21.6739 C   0  0  0  0  0  0  0  0  0  0  0  0
   17.0233  -18.2669   21.7588 C   0  0  0  0  0  0  0  0  0  0  0  0
   16.9507  -19.7877   21.1615 C   0  0  0  0  0  0  0  0  0  0  0  0
   16.3750  -19.8678   19.6618 C   0  0  0  0  0  0  0  0  0  0  0  0
   15.0716  -19.1233   19.5388 C   0  0  0  0  0  0  0  0  0  0  0  0
   14.8520  -18.0224   22.6306 C   0  0  0  0  0  0  0  0  0  0  0  0
   15.5169  -18.3529   24.0171 C   0  0  0  0  0  0  0  0  0  0  0  0
   13.7496  -19.8687   24.1802 O   0  0  0  0  0  0  0  0  0  0  0  0
   14.8579  -19.5798   24.5303 C   0  0  0  0  0  0  0  0  0  0  0  0
   14.5361  -21.1816   26.7974 S   0  0  0  0  0  0  0  0  0  0  0  0
   15.8748  -20.9359   27.8648 C   0  0  0  0  0  0  0  0  0  0  0  0
   15.5406  -20.4626   25.5569 C   0  0  0  0  0  0  0  0  0  0  0  0
   16.9516  -20.3869   27.1980 C   0  0  0  0  0  0  0  0  0  0  0  0
   16.8069  -20.1458   25.8745 N   0  0  0  0  0  0  0  0  0  0  0  0
   15.8102  -14.4610   19.4428 N   0  0  0  0  0  0  0  0  0  0  0  0
   16.5878  -15.0918   19.2483 H   0  0  0  0  0  0  0  0  0  0  0  0
   16.4404  -12.9860   20.4720 S   0  0  0  0  0  0  0  0  0  0  0  0
   15.8411  -13.0762   21.8155 O   0  0  0  0  0  0  0  0  0  0  0  0
   15.9594  -12.0606   19.4306 O   0  0  0  0  0  0  0  0  0  0  0  0
   18.2111  -13.3118   21.0135 C   0  0  0  0  0  0  0  0  0  0  0  0
   19.2286  -12.7291   20.2197 C   0  0  0  0  0  0  0  0  0  0  0  0
   20.5332  -12.9260   20.5944 C   0  0  0  0  0  0  0  0  0  0  0  0
   20.8270  -13.6738   21.7427 C   0  0  0  0  0  0  0  0  0  0  0  0
   19.8375  -14.2217   22.5520 C   0  0  0  0  0  0  0  0  0  0  0  0
   20.1004  -14.8626   23.7323 C   0  0  0  0  0  0  0  0  0  0  0  0
   19.0717  -15.3439   24.5141 C   0  0  0  0  0  0  0  0  0  0  0  0
   17.7416  -15.2115   24.0666 C   0  0  0  0  0  0  0  0  0  0  0  0
   17.4301  -14.5446   22.9080 C   0  0  0  0  0  0  0  0  0  0  0  0
   18.4558  -14.0332   22.1591 C   0  0  0  0  0  0  0  0  0  0  0  0
   21.3991  -14.8998   24.2410 N   0  0  0  0  0  0  0  0  0  0  0  0
   22.1585  -16.1492   24.4867 C   0  0  0  0  0  0  0  0  0  0  0  0
   21.9207  -13.8166   25.3071 C   0  0  0  0  0  0  0  0  0  0  0  0
   13.4237  -14.4639   20.0751 C   0  0  0  0  0  0  0  0  0  0  0  0
   12.5590  -14.5939   21.3304 C   0  0  0  0  0  0  0  0  0  0  0  0
   12.4777  -13.2456   22.0313 C   0  0  0  0  0  0  0  0  0  0  0  0
   12.5588  -12.2393   20.9943 N   0  0  0  0  0  0  0  0  0  0  0  0
   12.9015  -10.9672   21.0953 C   0  0  0  0  0  0  0  0  0  0  0  0
   13.3468  -10.4962   22.2614 N   0  0  0  0  0  0  0  0  0  0  0  0
   12.8643  -10.2222   19.9986 N   0  0  0  0  0  0  0  0  0  0  0  0
   13.3597  -11.0788   23.0549 H   0  0  0  0  0  0  0  0  0  0  0  0
   13.6624   -9.5661   22.3284 H   0  0  0  0  0  0  0  0  0  0  0  0
   12.5291  -10.6039   19.1553 H   0  0  0  0  0  0  0  0  0  0  0  0
   13.1720   -9.2874   20.0278 H   0  0  0  0  0  0  0  0  0  0  0  0
   13.0949   -9.6236   20.7454 H   0  0  0  0  0  0  0  0  0  0  0  0
 24 25  2  0  0  0
 24 33  1  0  0  0
 24 21  1  0  0  0
 25 26  1  0  0  0
 26 27  2  0  0  0
 27 28  1  0  0  0
 28 29  2  0  0  0
 28 33  1  0  0  0
 29 30  1  0  0  0
 29 34  1  0  0  0
 30 31  2  0  0  0
 31 32  1  0  0  0
 32 33  2  0  0  0
 34 35  1  0  0  0
 34 36  1  0  0  0
 21 22  2  0  0  0
 21 23  2  0  0  0
 21 19  1  0  0  0
 19  1  1  0  0  0
  1 37  1  0  0  0
  1  2  1  0  0  0
  2  3  2  0  0  0
  2  4  1  0  0  0
 37 38  1  0  0  0
 38 39  1  0  0  0
 39 40  1  0  0  0
 40 41  2  0  0  0
 41 42  1  0  0  0
 41 43  1  0  0  0
  4  5  1  0  0  0
  4  9  1  0  0  0
  5  6  1  0  0  0
  5 10  1  0  0  0
  6  7  1  0  0  0
  7  8  1  0  0  0
  8  9  1  0  0  0
 10 11  1  0  0  0
 11 13  1  0  0  0
 14 15  1  0  0  0
 14 16  1  0  0  0
 12 13  2  0  0  0
 15 17  2  0  0  0
 16 13  1  0  0  0
 16 18  2  0  0  0
 17 18  1  0  0  0
 19 20  1  0  0  0
 42 44  1  0  0  0
 42 45  1  0  0  0
 43 46  1  0  0  0
 43 47  1  0  0  0
 43 48  1  0  0  0
M  CHG 1  43   1
M  END
> <minimizedAffinity>
-7.54391

$$$$



 48 51  0  0  0  0  0  0  0  0999 V2000
   18.6093  -14.6220   20.2878 C   0  0  0  0  0  0  0  0  0  0  0  0
   18.6978  -14.0738   18.8605 C   0  0  0  0  0  0  0  0  0  0  0  0
   19.8400  -13.9428   18.4284 O   0  0  0  0  0  0  0  0  0  0  0  0
   17.5303  -13.6376   18.1756 N   0  0  0  0  0  0  0  0  0  0  0  0
   16.2138  -13.5760   19.0090 C   0  0  0  0  0  0  0  0  0  0  0  0
   15.1460  -14.1874   18.0892 C   0  0  0  0  0  0  0  0  0  0  0  0
   15.1531  -13.5379   16.5882 C   0  0  0  0  0  0  0  0  0  0  0  0
   16.5903  -13.5872   15.8678 C   0  0  0  0  0  0  0  0  0  0  0  0
   17.6654  -13.0233   16.7593 C   0  0  0  0  0  0  0  0  0  0  0  0
   15.8044  -12.3363   19.3831 C   0  0  0  0  0  0  0  0  0  0  0  0
   15.4618  -12.1512   20.9069 C   0  0  0  0  0  0  0  0  0  0  0  0
   13.4610  -11.3412   20.0188 O   0  0  0  0  0  0  0  0  0  0  0  0
   14.0309  -11.7639   20.9836 C   0  0  0  0  0  0  0  0  0  0  0  0
   11.9230  -12.9422   22.3897 S   0  0  0  0  0  0  0  0  0  0  0  0
   11.1524  -11.7454   23.3722 C   0  0  0  0  0  0  0  0  0  0  0  0
   13.2723  -11.8309   22.2948 C   0  0  0  0  0  0  0  0  0  0  0  0
   11.9777  -10.6574   23.5743 C   0  0  0  0  0  0  0  0  0  0  0  0
   13.2067  -10.6952   23.0096 N   0  0  0  0  0  0  0  0  0  0  0  0
   18.0056  -15.9832   20.1498 N   0  0  0  0  0  0  0  0  0  0  0  0
   17.2701  -15.9547   19.4437 H   0  0  0  0  0  0  0  0  0  0  0  0
   17.2608  -16.5510   21.8097 S   0  0  0  0  0  0  0  0  0  0  0  0
   16.4139  -17.7294   21.5519 O   0  0  0  0  0  0  0  0  0  0  0  0
   16.7210  -15.1965   22.0248 O   0  0  0  0  0  0  0  0  0  0  0  0
   18.5731  -17.4543   22.8080 C   0  0  0  0  0  0  0  0  0  0  0  0
   19.3822  -18.3733   22.0969 C   0  0  0  0  0  0  0  0  0  0  0  0
   20.3653  -19.0367   22.7857 C   0  0  0  0  0  0  0  0  0  0  0  0
   20.5554  -18.7853   24.1513 C   0  0  0  0  0  0  0  0  0  0  0  0
   19.7924  -17.8595   24.8548 C   0  0  0  0  0  0  0  0  0  0  0  0
   20.0322  -17.5232   26.1595 C   0  0  0  0  0  0  0  0  0  0  0  0
   19.2688  -16.5627   26.7886 C   0  0  0  0  0  0  0  0  0  0  0  0
   18.2043  -15.9575   26.0905 C   0  0  0  0  0  0  0  0  0  0  0  0
   17.9511  -16.2381   24.7709 C   0  0  0  0  0  0  0  0  0  0  0  0
   18.7410  -17.1626   24.1420 C   0  0  0  0  0  0  0  0  0  0  0  0
   21.1496  -18.0289   26.8246 N   0  0  0  0  0  0  0  0  0  0  0  0
   21.0901  -19.0890   27.8594 C   0  0  0  0  0  0  0  0  0  0  0  0
   22.4163  -17.1036   27.1735 C   0  0  0  0  0  0  0  0  0  0  0  0
   19.9818  -14.7300   20.9368 C   0  0  0  0  0  0  0  0  0  0  0  0
   20.0947  -13.9157   22.2270 C   0  0  0  0  0  0  0  0  0  0  0  0
   21.0656  -14.6027   23.1763 C   0  0  0  0  0  0  0  0  0  0  0  0
   20.8032  -14.0616   24.4927 N   0  0  0  0  0  0  0  0  0  0  0  0
   21.6535  -13.8083   25.4720 C   0  0  0  0  0  0  0  0  0  0  0  0
   22.9631  -13.9462   25.2585 N   0  0  0  0  0  0  0  0  0  0  0  0
   21.1675  -13.3441   26.6155 N   0  0  0  0  0  0  0  0  0  0  0  0
   23.2874  -14.2943   24.3966 H   0  0  0  0  0  0  0  0  0  0  0  0
   23.6053  -13.6999   25.9629 H   0  0  0  0  0  0  0  0  0  0  0  0
   20.1946  -13.2559   26.7372 H   0  0  0  0  0  0  0  0  0  0  0  0
   21.7798  -13.0878   27.3426 H   0  0  0  0  0  0  0  0  0  0  0  0
   22.1332  -13.4824   26.7482 H   0  0  0  0  0  0  0  0  0  0  0  0
 24 25  2  0  0  0
 24 33  1  0  0  0
 24 21  1  0  0  0
 25 26  1  0  0  0
 26 27  2  0  0  0
 27 28  1  0  0  0
 28 29  2  0  0  0
 28 33  1  0  0  0
 29 30  1  0  0  0
 29 34  1  0  0  0
 30 31  2  0  0  0
 31 32  1  0  0  0
 32 33  2  0  0  0
 34 35  1  0  0  0
 34 36  1  0  0  0
 21 22  2  0  0  0
 21 23  2  0  0  0
 21 19  1  0  0  0
 19  1  1  0  0  0
  1 37  1  0  0  0
  1  2  1  0  0  0
  2  3  2  0  0  0
  2  4  1  0  0  0
 37 38  1  0  0  0
 38 39  1  0  0  0
 39 40  1  0  0  0
 40 41  2  0  0  0
 41 42  1  0  0  0
 41 43  1  0  0  0
  4  5  1  0  0  0
  4  9  1  0  0  0
  5  6  1  0  0  0
  5 10  1  0  0  0
  6  7  1  0  0  0
  7  8  1  0  0  0
  8  9  1  0  0  0
 10 11  1  0  0  0
 11 13  1  0  0  0
 14 15  1  0  0  0
 14 16  1  0  0  0
 12 13  2  0  0  0
 15 17  2  0  0  0
 16 13  1  0  0  0
 16 18  2  0  0  0
 17 18  1  0  0  0
 19 20  1  0  0  0
 42 44  1  0  0  0
 42 45  1  0  0  0
 43 46  1  0  0  0
 43 47  1  0  0  0
 43 48  1  0  0  0
M  CHG 1  43   1
M  END
> <minimizedAffinity>
-7.48636

$$$$



 48 51  0  0  0  0  0  0  0  0999 V2000
   14.2848  -14.2082   20.5894 C   0  0  0  0  0  0  0  0  0  0  0  0
   13.4707  -15.4899   20.7901 C   0  0  0  0  0  0  0  0  0  0  0  0
   12.2652  -15.3157   20.9472 O   0  0  0  0  0  0  0  0  0  0  0  0
   14.1178  -16.7504   20.9125 N   0  0  0  0  0  0  0  0  0  0  0  0
   15.6735  -16.7296   21.0159 C   0  0  0  0  0  0  0  0  0  0  0  0
   16.1373  -17.8592   20.0837 C   0  0  0  0  0  0  0  0  0  0  0  0
   15.3537  -19.2689   20.3553 C   0  0  0  0  0  0  0  0  0  0  0  0
   13.7513  -19.1396   20.3045 C   0  0  0  0  0  0  0  0  0  0  0  0
   13.2678  -18.0173   21.1849 C   0  0  0  0  0  0  0  0  0  0  0  0
   16.1901  -16.9494   22.2526 C   0  0  0  0  0  0  0  0  0  0  0  0
   17.7498  -16.7983   22.3879 C   0  0  0  0  0  0  0  0  0  0  0  0
   17.9615  -14.7957   23.5679 O   0  0  0  0  0  0  0  0  0  0  0  0
   18.0340  -15.3464   22.5069 C   0  0  0  0  0  0  0  0  0  0  0  0
   19.5322  -15.1551   20.1557 S   0  0  0  0  0  0  0  0  0  0  0  0
   20.0601  -13.5214   19.9463 C   0  0  0  0  0  0  0  0  0  0  0  0
   18.3589  -14.5108   21.2839 C   0  0  0  0  0  0  0  0  0  0  0  0
   19.2949  -12.6490   20.6940 C   0  0  0  0  0  0  0  0  0  0  0  0
   18.2916  -13.1772   21.4324 N   0  0  0  0  0  0  0  0  0  0  0  0
   13.7511  -13.5957   19.3338 N   0  0  0  0  0  0  0  0  0  0  0  0
   13.0186  -14.1946   18.9527 H   0  0  0  0  0  0  0  0  0  0  0  0
   15.1415  -13.4060   18.0442 S   0  0  0  0  0  0  0  0  0  0  0  0
   16.4112  -13.8036   18.6785 O   0  0  0  0  0  0  0  0  0  0  0  0
   14.7463  -12.0020   17.8323 O   0  0  0  0  0  0  0  0  0  0  0  0
   15.0635  -14.8351   16.8250 C   0  0  0  0  0  0  0  0  0  0  0  0
   14.5408  -16.0549   17.3188 C   0  0  0  0  0  0  0  0  0  0  0  0
   14.4476  -17.1153   16.4540 C   0  0  0  0  0  0  0  0  0  0  0  0
   14.8504  -16.9687   15.1197 C   0  0  0  0  0  0  0  0  0  0  0  0
   15.3320  -15.7669   14.6114 C   0  0  0  0  0  0  0  0  0  0  0  0
   15.6292  -15.5744   13.2896 C   0  0  0  0  0  0  0  0  0  0  0  0
   16.0590  -14.3445   12.8385 C   0  0  0  0  0  0  0  0  0  0  0  0
   16.2351  -13.2920   13.7595 C   0  0  0  0  0  0  0  0  0  0  0  0
   15.9150  -13.4302   15.0872 C   0  0  0  0  0  0  0  0  0  0  0  0
   15.4489  -14.6431   15.5183 C   0  0  0  0  0  0  0  0  0  0  0  0
   15.3519  -16.5697   12.3518 N   0  0  0  0  0  0  0  0  0  0  0  0
   16.3806  -17.4484   11.7456 C   0  0  0  0  0  0  0  0  0  0  0  0
   14.1770  -16.4060   11.2677 C   0  0  0  0  0  0  0  0  0  0  0  0
   14.1085  -13.2403   21.7506 C   0  0  0  0  0  0  0  0  0  0  0  0
   13.5449  -11.8863   21.3152 C   0  0  0  0  0  0  0  0  0  0  0  0
   12.0905  -11.7796   21.7500 C   0  0  0  0  0  0  0  0  0  0  0  0
   12.0840  -11.0017   22.9705 N   0  0  0  0  0  0  0  0  0  0  0  0
   11.3589  -11.1732   24.0617 C   0  0  0  0  0  0  0  0  0  0  0  0
   10.5780  -12.2493   24.1705 N   0  0  0  0  0  0  0  0  0  0  0  0
   11.5013  -10.2990   25.0490 N   0  0  0  0  0  0  0  0  0  0  0  0
   10.4967  -12.8768   23.4162 H   0  0  0  0  0  0  0  0  0  0  0  0
   10.0830  -12.4160   25.0050 H   0  0  0  0  0  0  0  0  0  0  0  0
   12.0866   -9.5160   24.9326 H   0  0  0  0  0  0  0  0  0  0  0  0
   11.0217  -10.4331   25.8983 H   0  0  0  0  0  0  0  0  0  0  0  0
   10.7815  -10.9165   25.3130 H   0  0  0  0  0  0  0  0  0  0  0  0
 24 25  2  0  0  0
 24 33  1  0  0  0
 24 21  1  0  0  0
 25 26  1  0  0  0
 26 27  2  0  0  0
 27 28  1  0  0  0
 28 29  2  0  0  0
 28 33  1  0  0  0
 29 30  1  0  0  0
 29 34  1  0  0  0
 30 31  2  0  0  0
 31 32  1  0  0  0
 32 33  2  0  0  0
 34 35  1  0  0  0
 34 36  1  0  0  0
 21 22  2  0  0  0
 21 23  2  0  0  0
 21 19  1  0  0  0
 19  1  1  0  0  0
  1 37  1  0  0  0
  1  2  1  0  0  0
  2  3  2  0  0  0
  2  4  1  0  0  0
 37 38  1  0  0  0
 38 39  1  0  0  0
 39 40  1  0  0  0
 40 41  2  0  0  0
 41 42  1  0  0  0
 41 43  1  0  0  0
  4  5  1  0  0  0
  4  9  1  0  0  0
  5  6  1  0  0  0
  5 10  1  0  0  0
  6  7  1  0  0  0
  7  8  1  0  0  0
  8  9  1  0  0  0
 10 11  1  0  0  0
 11 13  1  0  0  0
 14 15  1  0  0  0
 14 16  1  0  0  0
 12 13  2  0  0  0
 15 17  2  0  0  0
 16 13  1  0  0  0
 16 18  2  0  0  0
 17 18  1  0  0  0
 19 20  1  0  0  0
 42 44  1  0  0  0
 42 45  1  0  0  0
 43 46  1  0  0  0
 43 47  1  0  0  0
 43 48  1  0  0  0
M  CHG 1  43   1
M  END
> <minimizedAffinity>
-7.46423

$$$$



 48 51  0  0  0  0  0  0  0  0999 V2000
   18.8716  -16.8133   22.9942 C   0  0  0  0  0  0  0  0  0  0  0  0
   20.3913  -16.7878   23.1825 C   0  0  0  0  0  0  0  0  0  0  0  0
   21.0106  -17.5876   22.4861 O   0  0  0  0  0  0  0  0  0  0  0  0
   20.9853  -15.9808   24.1917 N   0  0  0  0  0  0  0  0  0  0  0  0
   20.0124  -15.2854   25.1924 C   0  0  0  0  0  0  0  0  0  0  0  0
   20.5531  -13.8536   25.3244 C   0  0  0  0  0  0  0  0  0  0  0  0
   22.1585  -13.8068   25.6334 C   0  0  0  0  0  0  0  0  0  0  0  0
   23.0460  -14.6325   24.5762 C   0  0  0  0  0  0  0  0  0  0  0  0
   22.5200  -16.0328   24.4005 C   0  0  0  0  0  0  0  0  0  0  0  0
   19.9400  -15.8367   26.4315 C   0  0  0  0  0  0  0  0  0  0  0  0
   19.0221  -17.1062   26.5716 C   0  0  0  0  0  0  0  0  0  0  0  0
   21.0896  -18.1642   26.8031 O   0  0  0  0  0  0  0  0  0  0  0  0
   19.9040  -18.2362   26.9566 C   0  0  0  0  0  0  0  0  0  0  0  0
   17.5977  -19.7669   27.3398 S   0  0  0  0  0  0  0  0  0  0  0  0
   17.6835  -20.5535   28.8778 C   0  0  0  0  0  0  0  0  0  0  0  0
   19.3258  -19.5318   27.4918 C   0  0  0  0  0  0  0  0  0  0  0  0
   18.9832  -20.6078   29.3398 C   0  0  0  0  0  0  0  0  0  0  0  0
   19.9459  -20.0729   28.5537 N   0  0  0  0  0  0  0  0  0  0  0  0
   18.6420  -16.3640   21.5863 N   0  0  0  0  0  0  0  0  0  0  0  0
   19.4736  -16.5631   21.0302 H   0  0  0  0  0  0  0  0  0  0  0  0
   18.2862  -14.4924   21.5360 S   0  0  0  0  0  0  0  0  0  0  0  0
   19.4916  -13.7848   22.0035 O   0  0  0  0  0  0  0  0  0  0  0  0
   17.0929  -14.7020   22.3753 O   0  0  0  0  0  0  0  0  0  0  0  0
   18.3683  -13.8874   19.7578 C   0  0  0  0  0  0  0  0  0  0  0  0
   19.6363  -13.9493   19.1307 C   0  0  0  0  0  0  0  0  0  0  0  0
   19.7331  -13.5368   17.8262 C   0  0  0  0  0  0  0  0  0  0  0  0
   18.5929  -13.0846   17.1480 C   0  0  0  0  0  0  0  0  0  0  0  0
   17.3346  -13.0520   17.7394 C   0  0  0  0  0  0  0  0  0  0  0  0
   16.1938  -12.7156   17.0626 C   0  0  0  0  0  0  0  0  0  0  0  0
   14.9681  -12.7473   17.6932 C   0  0  0  0  0  0  0  0  0  0  0  0
   14.9010  -13.0865   19.0597 C   0  0  0  0  0  0  0  0  0  0  0  0
   16.0145  -13.4653   19.7675 C   0  0  0  0  0  0  0  0  0  0  0  0
   17.2215  -13.4714   19.1216 C   0  0  0  0  0  0  0  0  0  0  0  0
   16.2306  -12.4895   15.6862 N   0  0  0  0  0  0  0  0  0  0  0  0
   15.9253  -11.1851   15.0511 C   0  0  0  0  0  0  0  0  0  0  0  0
   15.8249  -13.6314   14.6308 C   0  0  0  0  0  0  0  0  0  0  0  0
   18.3024  -18.2114   23.1886 C   0  0  0  0  0  0  0  0  0  0  0  0
   16.9384  -18.2065   23.8813 C   0  0  0  0  0  0  0  0  0  0  0  0
   15.9194  -18.9123   22.9984 C   0  0  0  0  0  0  0  0  0  0  0  0
   14.7904  -18.0148   22.8782 N   0  0  0  0  0  0  0  0  0  0  0  0
   14.5860  -17.0489   22.0000 C   0  0  0  0  0  0  0  0  0  0  0  0
   15.4436  -16.8844   20.9913 N   0  0  0  0  0  0  0  0  0  0  0  0
   13.4797  -16.3262   22.1138 N   0  0  0  0  0  0  0  0  0  0  0  0
   16.2550  -17.4395   20.9396 H   0  0  0  0  0  0  0  0  0  0  0  0
   15.2650  -16.2079   20.2987 H   0  0  0  0  0  0  0  0  0  0  0  0
   12.8700  -16.4756   22.8721 H   0  0  0  0  0  0  0  0  0  0  0  0
   13.2683  -15.6403   21.4399 H   0  0  0  0  0  0  0  0  0  0  0  0
   14.0067  -15.9324   21.3813 H   0  0  0  0  0  0  0  0  0  0  0  0
 24 25  2  0  0  0
 24 33  1  0  0  0
 24 21  1  0  0  0
 25 26  1  0  0  0
 26 27  2  0  0  0
 27 28  1  0  0  0
 28 29  2  0  0  0
 28 33  1  0  0  0
 29 30  1  0  0  0
 29 34  1  0  0  0
 30 31  2  0  0  0
 31 32  1  0  0  0
 32 33  2  0  0  0
 34 35  1  0  0  0
 34 36  1  0  0  0
 21 22  2  0  0  0
 21 23  2  0  0  0
 21 19  1  0  0  0
 19  1  1  0  0  0
  1 37  1  0  0  0
  1  2  1  0  0  0
  2  3  2  0  0  0
  2  4  1  0  0  0
 37 38  1  0  0  0
 38 39  1  0  0  0
 39 40  1  0  0  0
 40 41  2  0  0  0
 41 42  1  0  0  0
 41 43  1  0  0  0
  4  5  1  0  0  0
  4  9  1  0  0  0
  5  6  1  0  0  0
  5 10  1  0  0  0
  6  7  1  0  0  0
  7  8  1  0  0  0
  8  9  1  0  0  0
 10 11  1  0  0  0
 11 13  1  0  0  0
 14 15  1  0  0  0
 14 16  1  0  0  0
 12 13  2  0  0  0
 15 17  2  0  0  0
 16 13  1  0  0  0
 16 18  2  0  0  0
 17 18  1  0  0  0
 19 20  1  0  0  0
 42 44  1  0  0  0
 42 45  1  0  0  0
 43 46  1  0  0  0
 43 47  1  0  0  0
 43 48  1  0  0  0
M  CHG 1  43   1
M  END
> <minimizedAffinity>
-7.46365

$$$$
